.Option ingold=2 accurate
.OPTION MEASDGT=8
.OPTION NUMDGT=10
+ RUNLVL=5 ACCURATE
.op
.PARAM LMIN='50E-9'
.PARAM VDD_VALUE=1.2
.PARAM VDD_HALF=0.6
.OPTION BRIEF=1

.OPTION POST=2
.OPTION MEASFORM=3
.OPTION PROBE=1
***fast
.option NOTOP NOELCHK
.option AUTOSTOP
*****
VSUPPLY VDD1 0 VDD_VALUE
Rres1 VDD1 VDD 50
VSUPPLYGND GND 0 0

.include './trans_model_nk'
.include './all_gates_anik'
.temp 25

.TRAN 10p 142N START=0N

*Vinputclk CLK PULSE (V1 V2 Td Tr Tf Pw Period)
Vinputclk CLK GND PULSE (0V 1.2V 5ns 0.001ns 0.001ns 5ns 10ns)
Vinputrstn RSTn GND PWL(0 0 9.999n 0 10n VDD_VALUE)
VinputDrdy Drdy GND PWL(0 0 19.999n 0 20n VDD_VALUE)
VinputKrdy Krdy GND PWL(0 0 9.999n 0 10n VDD_VALUE 19.999n VDD_VALUE 20n 0)

VinputEnDec EncDec GND PWL(0 0)
VinputEn EN GND PWL(0 VDD_VALUE)


paramvar


xAES_Comp_ENCa/BSYrg_reg n8244 CLK BSY_E n981 VDD GND DFF_X1
xAES_Comp_ENCa/Rrg_reg_0 n8112 CLK \AES_Comp_ENCa/Rrg_0 n813 VDD GND DFF_X1
xAES_Comp_ENCa/Rrg_reg_1 n8109 CLK \AES_Comp_ENCa/Rrg_1 dummy1 VDD GND DFF_X1
xAES_Comp_ENCa/Rrg_reg_2 n8113 CLK \AES_Comp_ENCa/Rrg_2 dummy2 VDD GND DFF_X1
xAES_Comp_ENCa/Rrg_reg_3 n8108 CLK \AES_Comp_ENCa/Rrg_3 n814 VDD GND DFF_X1
xAES_Comp_ENCa/Rrg_reg_4 n8107 CLK \AES_Comp_ENCa/Rrg_4 n815 VDD GND DFF_X1
xAES_Comp_ENCa/Rrg_reg_5 n8106 CLK \AES_Comp_ENCa/Rrg_5 dummy3 VDD GND DFF_X1
xAES_Comp_ENCa/Rrg_reg_6 n8105 CLK \AES_Comp_ENCa/Rrg_6 dummy4 VDD GND DFF_X1
xAES_Comp_ENCa/Rrg_reg_7 n8104 CLK \AES_Comp_ENCa/Rrg_7 n816 VDD GND DFF_X1
xAES_Comp_ENCa/Rrg_reg_8 n8103 CLK \AES_Comp_ENCa/Rrg_8 dummy5 VDD GND DFF_X1
xAES_Comp_ENCa/Rrg_reg_9 n8102 CLK \AES_Comp_ENCa/Rrg_9 n817 VDD GND DFF_X1
xAES_Comp_ENCa/Kvldrg_reg n8242 CLK Kvld_E n818 VDD GND DFF_X1
xKvld_reg_reg n8241 CLK Kvld_reg dummy6 VDD GND DFF_X1
xAES_Comp_ENCa/Krg_reg_2 n8114 CLK \AES_Comp_ENCa/Krg_2 n683 VDD GND DFF_X1
xAES_Comp_ENCa/Krg_reg_3 n8115 CLK \AES_Comp_ENCa/Krg_3 n684 VDD GND DFF_X1
xAES_Comp_ENCa/Krg_reg_4 n8116 CLK \AES_Comp_ENCa/Krg_4 n685 VDD GND DFF_X1
xAES_Comp_ENCa/Krg_reg_5 n8117 CLK \AES_Comp_ENCa/Krg_5 n686 VDD GND DFF_X1
xAES_Comp_ENCa/Krg_reg_6 n8118 CLK \AES_Comp_ENCa/Krg_6 n687 VDD GND DFF_X1
xAES_Comp_ENCa/Krg_reg_7 n8119 CLK \AES_Comp_ENCa/Krg_7 n688 VDD GND DFF_X1
xAES_Comp_ENCa/Krg_reg_8 n8120 CLK \AES_Comp_ENCa/Krg_8 n689 VDD GND DFF_X1
xAES_Comp_ENCa/Krg_reg_9 n8121 CLK \AES_Comp_ENCa/Krg_9 n690 VDD GND DFF_X1
xAES_Comp_ENCa/Krg_reg_10 n8122 CLK \AES_Comp_ENCa/Krg_10 n691 VDD GND DFF_X1
xAES_Comp_ENCa/Krg_reg_11 n8123 CLK \AES_Comp_ENCa/Krg_11 n692 VDD GND DFF_X1
xAES_Comp_ENCa/Krg_reg_12 n8124 CLK \AES_Comp_ENCa/Krg_12 n693 VDD GND DFF_X1
xAES_Comp_ENCa/Krg_reg_13 n8125 CLK \AES_Comp_ENCa/Krg_13 n694 VDD GND DFF_X1
xAES_Comp_ENCa/Krg_reg_14 n8126 CLK \AES_Comp_ENCa/Krg_14 n695 VDD GND DFF_X1
xAES_Comp_ENCa/Krg_reg_15 n8127 CLK \AES_Comp_ENCa/Krg_15 n696 VDD GND DFF_X1
xAES_Comp_ENCa/Krg_reg_16 n8128 CLK \AES_Comp_ENCa/Krg_16 n697 VDD GND DFF_X1
xAES_Comp_ENCa/Krg_reg_17 n8129 CLK \AES_Comp_ENCa/Krg_17 n698 VDD GND DFF_X1
xAES_Comp_ENCa/Krg_reg_18 n8130 CLK \AES_Comp_ENCa/Krg_18 n699 VDD GND DFF_X1
xAES_Comp_ENCa/Krg_reg_19 n8131 CLK \AES_Comp_ENCa/Krg_19 n700 VDD GND DFF_X1
xAES_Comp_ENCa/Krg_reg_20 n8132 CLK \AES_Comp_ENCa/Krg_20 n701 VDD GND DFF_X1
xAES_Comp_ENCa/Krg_reg_21 n8133 CLK \AES_Comp_ENCa/Krg_21 n702 VDD GND DFF_X1
xAES_Comp_ENCa/Krg_reg_22 n8134 CLK \AES_Comp_ENCa/Krg_22 n703 VDD GND DFF_X1
xAES_Comp_ENCa/Krg_reg_23 n8135 CLK \AES_Comp_ENCa/Krg_23 n704 VDD GND DFF_X1
xAES_Comp_ENCa/Krg_reg_24 n8136 CLK \AES_Comp_ENCa/Krg_24 n705 VDD GND DFF_X1
xAES_Comp_ENCa/Krg_reg_25 n8137 CLK \AES_Comp_ENCa/Krg_25 n706 VDD GND DFF_X1
xAES_Comp_ENCa/Krg_reg_26 n8138 CLK \AES_Comp_ENCa/Krg_26 n707 VDD GND DFF_X1
xAES_Comp_ENCa/Krg_reg_27 n8139 CLK \AES_Comp_ENCa/Krg_27 n708 VDD GND DFF_X1
xAES_Comp_ENCa/Krg_reg_28 n8140 CLK \AES_Comp_ENCa/Krg_28 n709 VDD GND DFF_X1
xAES_Comp_ENCa/Krg_reg_29 n8141 CLK \AES_Comp_ENCa/Krg_29 n710 VDD GND DFF_X1
xAES_Comp_ENCa/Krg_reg_1 n8142 CLK \AES_Comp_ENCa/Krg_1 n682 VDD GND DFF_X1
xAES_Comp_ENCa/Krg_reg_30 n8143 CLK \AES_Comp_ENCa/Krg_30 n711 VDD GND DFF_X1
xAES_Comp_ENCa/Krg_reg_31 n8144 CLK \AES_Comp_ENCa/Krg_31 n712 VDD GND DFF_X1
xAES_Comp_ENCa/Krg_reg_32 n8145 CLK \AES_Comp_ENCa/Krg_32 n713 VDD GND DFF_X1
xAES_Comp_ENCa/Krg_reg_33 n8146 CLK \AES_Comp_ENCa/Krg_33 n714 VDD GND DFF_X1
xAES_Comp_ENCa/Krg_reg_34 n8147 CLK \AES_Comp_ENCa/Krg_34 n715 VDD GND DFF_X1
xAES_Comp_ENCa/Krg_reg_35 n8148 CLK \AES_Comp_ENCa/Krg_35 n716 VDD GND DFF_X1
xAES_Comp_ENCa/Krg_reg_36 n8149 CLK \AES_Comp_ENCa/Krg_36 n717 VDD GND DFF_X1
xAES_Comp_ENCa/Krg_reg_37 n8150 CLK \AES_Comp_ENCa/Krg_37 n718 VDD GND DFF_X1
xAES_Comp_ENCa/Krg_reg_38 n8151 CLK \AES_Comp_ENCa/Krg_38 n719 VDD GND DFF_X1
xAES_Comp_ENCa/Krg_reg_39 n8152 CLK \AES_Comp_ENCa/Krg_39 n720 VDD GND DFF_X1
xAES_Comp_ENCa/Krg_reg_40 n8153 CLK \AES_Comp_ENCa/Krg_40 n721 VDD GND DFF_X1
xAES_Comp_ENCa/Krg_reg_41 n8154 CLK \AES_Comp_ENCa/Krg_41 n722 VDD GND DFF_X1
xAES_Comp_ENCa/Krg_reg_42 n8155 CLK \AES_Comp_ENCa/Krg_42 n723 VDD GND DFF_X1
xAES_Comp_ENCa/Krg_reg_43 n8156 CLK \AES_Comp_ENCa/Krg_43 n724 VDD GND DFF_X1
xAES_Comp_ENCa/Krg_reg_44 n8157 CLK \AES_Comp_ENCa/Krg_44 n725 VDD GND DFF_X1
xAES_Comp_ENCa/Krg_reg_45 n8158 CLK \AES_Comp_ENCa/Krg_45 n726 VDD GND DFF_X1
xAES_Comp_ENCa/Krg_reg_46 n8159 CLK \AES_Comp_ENCa/Krg_46 n727 VDD GND DFF_X1
xAES_Comp_ENCa/Krg_reg_47 n8160 CLK \AES_Comp_ENCa/Krg_47 n728 VDD GND DFF_X1
xAES_Comp_ENCa/Krg_reg_48 n8161 CLK \AES_Comp_ENCa/Krg_48 n729 VDD GND DFF_X1
xAES_Comp_ENCa/Krg_reg_49 n8162 CLK \AES_Comp_ENCa/Krg_49 n730 VDD GND DFF_X1
xAES_Comp_ENCa/Krg_reg_50 n8163 CLK \AES_Comp_ENCa/Krg_50 n731 VDD GND DFF_X1
xAES_Comp_ENCa/Krg_reg_51 n8164 CLK \AES_Comp_ENCa/Krg_51 n732 VDD GND DFF_X1
xAES_Comp_ENCa/Krg_reg_52 n8165 CLK \AES_Comp_ENCa/Krg_52 n733 VDD GND DFF_X1
xAES_Comp_ENCa/Krg_reg_53 n8166 CLK \AES_Comp_ENCa/Krg_53 n734 VDD GND DFF_X1
xAES_Comp_ENCa/Krg_reg_54 n8167 CLK \AES_Comp_ENCa/Krg_54 n735 VDD GND DFF_X1
xAES_Comp_ENCa/Krg_reg_55 n8168 CLK \AES_Comp_ENCa/Krg_55 n736 VDD GND DFF_X1
xAES_Comp_ENCa/Krg_reg_56 n8169 CLK \AES_Comp_ENCa/Krg_56 n737 VDD GND DFF_X1
xAES_Comp_ENCa/Krg_reg_57 n8170 CLK \AES_Comp_ENCa/Krg_57 n738 VDD GND DFF_X1
xAES_Comp_ENCa/Krg_reg_58 n8171 CLK \AES_Comp_ENCa/Krg_58 n739 VDD GND DFF_X1
xAES_Comp_ENCa/Krg_reg_59 n8172 CLK \AES_Comp_ENCa/Krg_59 n740 VDD GND DFF_X1
xAES_Comp_ENCa/Krg_reg_60 n8173 CLK \AES_Comp_ENCa/Krg_60 n741 VDD GND DFF_X1
xAES_Comp_ENCa/Krg_reg_61 n8174 CLK \AES_Comp_ENCa/Krg_61 n742 VDD GND DFF_X1
xAES_Comp_ENCa/Krg_reg_62 n8175 CLK \AES_Comp_ENCa/Krg_62 n743 VDD GND DFF_X1
xAES_Comp_ENCa/Krg_reg_63 n8176 CLK \AES_Comp_ENCa/Krg_63 n744 VDD GND DFF_X1
xAES_Comp_ENCa/Krg_reg_64 n8177 CLK \AES_Comp_ENCa/Krg_64 n745 VDD GND DFF_X1
xAES_Comp_ENCa/Krg_reg_65 n8178 CLK \AES_Comp_ENCa/Krg_65 n746 VDD GND DFF_X1
xAES_Comp_ENCa/Krg_reg_66 n8179 CLK \AES_Comp_ENCa/Krg_66 n747 VDD GND DFF_X1
xAES_Comp_ENCa/Krg_reg_67 n8180 CLK \AES_Comp_ENCa/Krg_67 n748 VDD GND DFF_X1
xAES_Comp_ENCa/Krg_reg_68 n8181 CLK \AES_Comp_ENCa/Krg_68 n749 VDD GND DFF_X1
xAES_Comp_ENCa/Krg_reg_69 n8182 CLK \AES_Comp_ENCa/Krg_69 n750 VDD GND DFF_X1
xAES_Comp_ENCa/Krg_reg_70 n8183 CLK \AES_Comp_ENCa/Krg_70 n751 VDD GND DFF_X1
xAES_Comp_ENCa/Krg_reg_71 n8184 CLK \AES_Comp_ENCa/Krg_71 n752 VDD GND DFF_X1
xAES_Comp_ENCa/Krg_reg_72 n8185 CLK \AES_Comp_ENCa/Krg_72 n753 VDD GND DFF_X1
xAES_Comp_ENCa/Krg_reg_73 n8186 CLK \AES_Comp_ENCa/Krg_73 n754 VDD GND DFF_X1
xAES_Comp_ENCa/Krg_reg_74 n8187 CLK \AES_Comp_ENCa/Krg_74 n755 VDD GND DFF_X1
xAES_Comp_ENCa/Krg_reg_75 n8188 CLK \AES_Comp_ENCa/Krg_75 n756 VDD GND DFF_X1
xAES_Comp_ENCa/Krg_reg_76 n8189 CLK \AES_Comp_ENCa/Krg_76 n757 VDD GND DFF_X1
xAES_Comp_ENCa/Krg_reg_77 n8190 CLK \AES_Comp_ENCa/Krg_77 n758 VDD GND DFF_X1
xAES_Comp_ENCa/Krg_reg_78 n8191 CLK \AES_Comp_ENCa/Krg_78 n759 VDD GND DFF_X1
xAES_Comp_ENCa/Krg_reg_79 n8192 CLK \AES_Comp_ENCa/Krg_79 n760 VDD GND DFF_X1
xAES_Comp_ENCa/Krg_reg_80 n8193 CLK \AES_Comp_ENCa/Krg_80 n761 VDD GND DFF_X1
xAES_Comp_ENCa/Krg_reg_81 n8194 CLK \AES_Comp_ENCa/Krg_81 n762 VDD GND DFF_X1
xAES_Comp_ENCa/Krg_reg_82 n8195 CLK \AES_Comp_ENCa/Krg_82 n763 VDD GND DFF_X1
xAES_Comp_ENCa/Krg_reg_83 n8196 CLK \AES_Comp_ENCa/Krg_83 n764 VDD GND DFF_X1
xAES_Comp_ENCa/Krg_reg_84 n8197 CLK \AES_Comp_ENCa/Krg_84 n765 VDD GND DFF_X1
xAES_Comp_ENCa/Krg_reg_85 n8198 CLK \AES_Comp_ENCa/Krg_85 n766 VDD GND DFF_X1
xAES_Comp_ENCa/Krg_reg_86 n8199 CLK \AES_Comp_ENCa/Krg_86 n767 VDD GND DFF_X1
xAES_Comp_ENCa/Krg_reg_87 n8200 CLK \AES_Comp_ENCa/Krg_87 n768 VDD GND DFF_X1
xAES_Comp_ENCa/Krg_reg_88 n8201 CLK \AES_Comp_ENCa/Krg_88 n769 VDD GND DFF_X1
xAES_Comp_ENCa/Krg_reg_89 n8202 CLK \AES_Comp_ENCa/Krg_89 n770 VDD GND DFF_X1
xAES_Comp_ENCa/Krg_reg_90 n8203 CLK \AES_Comp_ENCa/Krg_90 n771 VDD GND DFF_X1
xAES_Comp_ENCa/Krg_reg_91 n8204 CLK \AES_Comp_ENCa/Krg_91 n772 VDD GND DFF_X1
xAES_Comp_ENCa/Krg_reg_92 n8205 CLK \AES_Comp_ENCa/Krg_92 n773 VDD GND DFF_X1
xAES_Comp_ENCa/Krg_reg_93 n8206 CLK \AES_Comp_ENCa/Krg_93 n774 VDD GND DFF_X1
xAES_Comp_ENCa/Krg_reg_94 n8207 CLK \AES_Comp_ENCa/Krg_94 n775 VDD GND DFF_X1
xAES_Comp_ENCa/Krg_reg_95 n8208 CLK \AES_Comp_ENCa/Krg_95 n776 VDD GND DFF_X1
xAES_Comp_ENCa/Krg_reg_96 n8209 CLK \AES_Comp_ENCa/Krg_96 n777 VDD GND DFF_X1
xAES_Comp_ENCa/Krg_reg_97 n8210 CLK \AES_Comp_ENCa/Krg_97 n778 VDD GND DFF_X1
xAES_Comp_ENCa/Krg_reg_98 n8211 CLK \AES_Comp_ENCa/Krg_98 n779 VDD GND DFF_X1
xAES_Comp_ENCa/Krg_reg_99 n8212 CLK \AES_Comp_ENCa/Krg_99 n780 VDD GND DFF_X1
xAES_Comp_ENCa/Krg_reg_100 n8213 CLK \AES_Comp_ENCa/Krg_100 n781 VDD GND DFF_X1
xAES_Comp_ENCa/Krg_reg_101 n8214 CLK \AES_Comp_ENCa/Krg_101 n782 VDD GND DFF_X1
xAES_Comp_ENCa/Krg_reg_102 n8215 CLK \AES_Comp_ENCa/Krg_102 n783 VDD GND DFF_X1
xAES_Comp_ENCa/Krg_reg_103 n8216 CLK \AES_Comp_ENCa/Krg_103 n784 VDD GND DFF_X1
xAES_Comp_ENCa/Krg_reg_104 n8217 CLK \AES_Comp_ENCa/Krg_104 n785 VDD GND DFF_X1
xAES_Comp_ENCa/Krg_reg_105 n8218 CLK \AES_Comp_ENCa/Krg_105 n786 VDD GND DFF_X1
xAES_Comp_ENCa/Krg_reg_106 n8219 CLK \AES_Comp_ENCa/Krg_106 n787 VDD GND DFF_X1
xAES_Comp_ENCa/Krg_reg_107 n8220 CLK \AES_Comp_ENCa/Krg_107 n788 VDD GND DFF_X1
xAES_Comp_ENCa/Krg_reg_108 n8221 CLK \AES_Comp_ENCa/Krg_108 n789 VDD GND DFF_X1
xAES_Comp_ENCa/Krg_reg_109 n8222 CLK \AES_Comp_ENCa/Krg_109 n790 VDD GND DFF_X1
xAES_Comp_ENCa/Krg_reg_110 n8223 CLK \AES_Comp_ENCa/Krg_110 n791 VDD GND DFF_X1
xAES_Comp_ENCa/Krg_reg_111 n8224 CLK \AES_Comp_ENCa/Krg_111 n792 VDD GND DFF_X1
xAES_Comp_ENCa/Krg_reg_112 n8225 CLK \AES_Comp_ENCa/Krg_112 n793 VDD GND DFF_X1
xAES_Comp_ENCa/Krg_reg_113 n8226 CLK \AES_Comp_ENCa/Krg_113 n794 VDD GND DFF_X1
xAES_Comp_ENCa/Krg_reg_114 n8227 CLK \AES_Comp_ENCa/Krg_114 n795 VDD GND DFF_X1
xAES_Comp_ENCa/Krg_reg_115 n8228 CLK \AES_Comp_ENCa/Krg_115 n796 VDD GND DFF_X1
xAES_Comp_ENCa/Krg_reg_116 n8229 CLK \AES_Comp_ENCa/Krg_116 n797 VDD GND DFF_X1
xAES_Comp_ENCa/Krg_reg_117 n8230 CLK \AES_Comp_ENCa/Krg_117 n798 VDD GND DFF_X1
xAES_Comp_ENCa/Krg_reg_118 n8231 CLK \AES_Comp_ENCa/Krg_118 n799 VDD GND DFF_X1
xAES_Comp_ENCa/Krg_reg_119 n8232 CLK \AES_Comp_ENCa/Krg_119 n800 VDD GND DFF_X1
xAES_Comp_ENCa/Krg_reg_120 n8233 CLK \AES_Comp_ENCa/Krg_120 n801 VDD GND DFF_X1
xAES_Comp_ENCa/Krg_reg_121 n8234 CLK \AES_Comp_ENCa/Krg_121 n802 VDD GND DFF_X1
xAES_Comp_ENCa/Krg_reg_122 n8235 CLK \AES_Comp_ENCa/Krg_122 n803 VDD GND DFF_X1
xAES_Comp_ENCa/Krg_reg_123 n8236 CLK \AES_Comp_ENCa/Krg_123 n804 VDD GND DFF_X1
xAES_Comp_ENCa/Krg_reg_124 n8237 CLK \AES_Comp_ENCa/Krg_124 n805 VDD GND DFF_X1
xAES_Comp_ENCa/Krg_reg_125 n8238 CLK \AES_Comp_ENCa/Krg_125 n806 VDD GND DFF_X1
xAES_Comp_ENCa/Krg_reg_126 n8239 CLK \AES_Comp_ENCa/Krg_126 n807 VDD GND DFF_X1
xAES_Comp_ENCa/Krg_reg_127 n8240 CLK \AES_Comp_ENCa/Krg_127 n808 VDD GND DFF_X1
xAES_Comp_ENCa/Krg_reg_0 n8243 CLK \AES_Comp_ENCa/Krg_0 n681 VDD GND DFF_X1
xAES_Comp_ENCa/KrgX_reg_0 n8101 CLK \AES_Comp_ENCa/KrgX_0 n824 VDD GND DFF_X1
xAES_Comp_ENCa/KrgX_reg_40 n8061 CLK \AES_Comp_ENCa/KrgX_40 n893 VDD GND DFF_X1
xAES_Comp_ENCa/KrgX_reg_8 n8093 CLK \AES_Comp_ENCa/KrgX_8 n839 VDD GND DFF_X1
xAES_Comp_ENCa/KrgX_reg_48 n8053 CLK \AES_Comp_ENCa/KrgX_48 n901 VDD GND DFF_X1
xAES_Comp_ENCa/KrgX_reg_16 n8085 CLK \AES_Comp_ENCa/KrgX_16 n854 VDD GND DFF_X1
xAES_Comp_ENCa/KrgX_reg_56 n8045 CLK \AES_Comp_ENCa/KrgX_56 n909 VDD GND DFF_X1
xAES_Comp_ENCa/KrgX_reg_24 n8077 CLK \AES_Comp_ENCa/KrgX_24 n875 VDD GND DFF_X1
xAES_Comp_ENCa/KrgX_reg_36 n8065 CLK \AES_Comp_ENCa/KrgX_36 n889 VDD GND DFF_X1
xAES_Comp_ENCa/KrgX_reg_4 n8097 CLK \AES_Comp_ENCa/KrgX_4 n829 VDD GND DFF_X1
xAES_Comp_ENCa/KrgX_reg_41 n8060 CLK \AES_Comp_ENCa/KrgX_41 n894 VDD GND DFF_X1
xAES_Comp_ENCa/KrgX_reg_9 n8092 CLK \AES_Comp_ENCa/KrgX_9 n840 VDD GND DFF_X1
xAES_Comp_ENCa/KrgX_reg_49 n8052 CLK \AES_Comp_ENCa/KrgX_49 n902 VDD GND DFF_X1
xAES_Comp_ENCa/KrgX_reg_17 n8084 CLK \AES_Comp_ENCa/KrgX_17 n857 VDD GND DFF_X1
xAES_Comp_ENCa/KrgX_reg_57 n8044 CLK \AES_Comp_ENCa/KrgX_57 n910 VDD GND DFF_X1
xAES_Comp_ENCa/KrgX_reg_25 n8076 CLK \AES_Comp_ENCa/KrgX_25 n876 VDD GND DFF_X1
xAES_Comp_ENCa/KrgX_reg_33 n8068 CLK \AES_Comp_ENCa/KrgX_33 n886 VDD GND DFF_X1
xAES_Comp_ENCa/KrgX_reg_42 n8059 CLK \AES_Comp_ENCa/KrgX_42 n895 VDD GND DFF_X1
xAES_Comp_ENCa/KrgX_reg_10 n8091 CLK \AES_Comp_ENCa/KrgX_10 n841 VDD GND DFF_X1
xAES_Comp_ENCa/KrgX_reg_51 n8050 CLK \AES_Comp_ENCa/KrgX_51 n904 VDD GND DFF_X1
xAES_Comp_ENCa/KrgX_reg_19 n8082 CLK \AES_Comp_ENCa/KrgX_19 n861 VDD GND DFF_X1
xAES_Comp_ENCa/KrgX_reg_59 n8042 CLK \AES_Comp_ENCa/KrgX_59 n912 VDD GND DFF_X1
xAES_Comp_ENCa/KrgX_reg_27 n8074 CLK \AES_Comp_ENCa/KrgX_27 n879 VDD GND DFF_X1
xAES_Comp_ENCa/KrgX_reg_91 n8010 CLK \AES_Comp_ENCa/KrgX_91 n944 VDD GND DFF_X1
xAES_Comp_ENCa/KrgX_reg_123 n7978 CLK \AES_Comp_ENCa/KrgX_123 n976 VDD GND DFF_X1
xAES_Comp_ENCa/KrgX_reg_60 n8041 CLK \AES_Comp_ENCa/KrgX_60 n913 VDD GND DFF_X1
xAES_Comp_ENCa/KrgX_reg_28 n8073 CLK \AES_Comp_ENCa/KrgX_28 n880 VDD GND DFF_X1
xAES_Comp_ENCa/KrgX_reg_35 n8066 CLK \AES_Comp_ENCa/KrgX_35 n888 VDD GND DFF_X1
xAES_Comp_ENCa/KrgX_reg_3 n8098 CLK \AES_Comp_ENCa/KrgX_3 n827 VDD GND DFF_X1
xAES_Comp_ENCa/KrgX_reg_45 n8056 CLK \AES_Comp_ENCa/KrgX_45 n898 VDD GND DFF_X1
xAES_Comp_ENCa/KrgX_reg_13 n8088 CLK \AES_Comp_ENCa/KrgX_13 n845 VDD GND DFF_X1
xAES_Comp_ENCa/KrgX_reg_77 n8024 CLK \AES_Comp_ENCa/KrgX_77 n930 VDD GND DFF_X1
xAES_Comp_ENCa/KrgX_reg_109 n7992 CLK \AES_Comp_ENCa/KrgX_109 n962 VDD GND DFF_X1
xAES_Comp_ENCa/KrgX_reg_43 n8058 CLK \AES_Comp_ENCa/KrgX_43 n896 VDD GND DFF_X1
xAES_Comp_ENCa/KrgX_reg_11 n8090 CLK \AES_Comp_ENCa/KrgX_11 n842 VDD GND DFF_X1
xAES_Comp_ENCa/KrgX_reg_50 n8051 CLK \AES_Comp_ENCa/KrgX_50 n903 VDD GND DFF_X1
xAES_Comp_ENCa/KrgX_reg_18 n8083 CLK \AES_Comp_ENCa/KrgX_18 n860 VDD GND DFF_X1
xAES_Comp_ENCa/KrgX_reg_63 n8038 CLK \AES_Comp_ENCa/KrgX_63 n916 VDD GND DFF_X1
xAES_Comp_ENCa/KrgX_reg_31 n8070 CLK \AES_Comp_ENCa/KrgX_31 n884 VDD GND DFF_X1
xAES_Comp_ENCa/KrgX_reg_37 n8064 CLK \AES_Comp_ENCa/KrgX_37 n890 VDD GND DFF_X1
xAES_Comp_ENCa/KrgX_reg_5 n8096 CLK \AES_Comp_ENCa/KrgX_5 n830 VDD GND DFF_X1
xAES_Comp_ENCa/KrgX_reg_46 n8055 CLK \AES_Comp_ENCa/KrgX_46 n899 VDD GND DFF_X1
xAES_Comp_ENCa/KrgX_reg_14 n8087 CLK \AES_Comp_ENCa/KrgX_14 n846 VDD GND DFF_X1
xAES_Comp_ENCa/KrgX_reg_54 n8047 CLK \AES_Comp_ENCa/KrgX_54 n907 VDD GND DFF_X1
xAES_Comp_ENCa/KrgX_reg_22 n8079 CLK \AES_Comp_ENCa/KrgX_22 n866 VDD GND DFF_X1
xAES_Comp_ENCa/KrgX_reg_58 n8043 CLK \AES_Comp_ENCa/KrgX_58 n911 VDD GND DFF_X1
xAES_Comp_ENCa/KrgX_reg_26 n8075 CLK \AES_Comp_ENCa/KrgX_26 n878 VDD GND DFF_X1
xAES_Comp_ENCa/KrgX_reg_34 n8067 CLK \AES_Comp_ENCa/KrgX_34 n887 VDD GND DFF_X1
xAES_Comp_ENCa/KrgX_reg_2 n8099 CLK \AES_Comp_ENCa/KrgX_2 n826 VDD GND DFF_X1
xAES_Comp_ENCa/KrgX_reg_47 n8054 CLK \AES_Comp_ENCa/KrgX_47 n900 VDD GND DFF_X1
xAES_Comp_ENCa/KrgX_reg_15 n8086 CLK \AES_Comp_ENCa/KrgX_15 n847 VDD GND DFF_X1
xAES_Comp_ENCa/KrgX_reg_53 n8048 CLK \AES_Comp_ENCa/KrgX_53 n906 VDD GND DFF_X1
xAES_Comp_ENCa/KrgX_reg_21 n8080 CLK \AES_Comp_ENCa/KrgX_21 n865 VDD GND DFF_X1
xAES_Comp_ENCa/KrgX_reg_62 n8039 CLK \AES_Comp_ENCa/KrgX_62 n915 VDD GND DFF_X1
xAES_Comp_ENCa/KrgX_reg_30 n8071 CLK \AES_Comp_ENCa/KrgX_30 n883 VDD GND DFF_X1
xAES_Comp_ENCa/KrgX_reg_38 n8063 CLK \AES_Comp_ENCa/KrgX_38 n891 VDD GND DFF_X1
xAES_Comp_ENCa/KrgX_reg_6 n8095 CLK \AES_Comp_ENCa/KrgX_6 n831 VDD GND DFF_X1
xAES_Comp_ENCa/KrgX_reg_44 n8057 CLK \AES_Comp_ENCa/KrgX_44 n897 VDD GND DFF_X1
xAES_Comp_ENCa/KrgX_reg_12 n8089 CLK \AES_Comp_ENCa/KrgX_12 n844 VDD GND DFF_X1
xAES_Comp_ENCa/KrgX_reg_52 n8049 CLK \AES_Comp_ENCa/KrgX_52 n905 VDD GND DFF_X1
xAES_Comp_ENCa/KrgX_reg_20 n8081 CLK \AES_Comp_ENCa/KrgX_20 n864 VDD GND DFF_X1
xAES_Comp_ENCa/KrgX_reg_84 n8017 CLK \AES_Comp_ENCa/KrgX_84 n937 VDD GND DFF_X1
xAES_Comp_ENCa/KrgX_reg_116 n7985 CLK \AES_Comp_ENCa/KrgX_116 n969 VDD GND DFF_X1
xAES_Comp_ENCa/KrgX_reg_55 n8046 CLK \AES_Comp_ENCa/KrgX_55 n908 VDD GND DFF_X1
xAES_Comp_ENCa/KrgX_reg_23 n8078 CLK \AES_Comp_ENCa/KrgX_23 n867 VDD GND DFF_X1
xAES_Comp_ENCa/KrgX_reg_61 n8040 CLK \AES_Comp_ENCa/KrgX_61 n914 VDD GND DFF_X1
xAES_Comp_ENCa/KrgX_reg_29 n8072 CLK \AES_Comp_ENCa/KrgX_29 n882 VDD GND DFF_X1
xAES_Comp_ENCa/KrgX_reg_39 n8062 CLK \AES_Comp_ENCa/KrgX_39 n892 VDD GND DFF_X1
xAES_Comp_ENCa/KrgX_reg_7 n8094 CLK \AES_Comp_ENCa/KrgX_7 n832 VDD GND DFF_X1
xAES_Comp_ENCa/KrgX_reg_71 n8030 CLK \AES_Comp_ENCa/KrgX_71 n924 VDD GND DFF_X1
xAES_Comp_ENCa/KrgX_reg_103 n7998 CLK \AES_Comp_ENCa/KrgX_103 n956 VDD GND DFF_X1
xAES_Comp_ENCa/KrgX_reg_93 n8008 CLK \AES_Comp_ENCa/KrgX_93 n946 VDD GND DFF_X1
xAES_Comp_ENCa/KrgX_reg_125 n7976 CLK \AES_Comp_ENCa/KrgX_125 n978 VDD GND DFF_X1
xAES_Comp_ENCa/KrgX_reg_87 n8014 CLK \AES_Comp_ENCa/KrgX_87 n940 VDD GND DFF_X1
xAES_Comp_ENCa/KrgX_reg_119 n7982 CLK \AES_Comp_ENCa/KrgX_119 n972 VDD GND DFF_X1
xAES_Comp_ENCa/KrgX_reg_76 n8025 CLK \AES_Comp_ENCa/KrgX_76 n929 VDD GND DFF_X1
xAES_Comp_ENCa/KrgX_reg_108 n7993 CLK \AES_Comp_ENCa/KrgX_108 n961 VDD GND DFF_X1
xAES_Comp_ENCa/KrgX_reg_70 n8031 CLK \AES_Comp_ENCa/KrgX_70 n923 VDD GND DFF_X1
xAES_Comp_ENCa/KrgX_reg_102 n7999 CLK \AES_Comp_ENCa/KrgX_102 n955 VDD GND DFF_X1
xAES_Comp_ENCa/KrgX_reg_94 n8007 CLK \AES_Comp_ENCa/KrgX_94 n947 VDD GND DFF_X1
xAES_Comp_ENCa/KrgX_reg_126 n7975 CLK \AES_Comp_ENCa/KrgX_126 n979 VDD GND DFF_X1
xAES_Comp_ENCa/KrgX_reg_85 n8016 CLK \AES_Comp_ENCa/KrgX_85 n938 VDD GND DFF_X1
xAES_Comp_ENCa/KrgX_reg_117 n7984 CLK \AES_Comp_ENCa/KrgX_117 n970 VDD GND DFF_X1
xAES_Comp_ENCa/KrgX_reg_79 n8022 CLK \AES_Comp_ENCa/KrgX_79 n932 VDD GND DFF_X1
xAES_Comp_ENCa/KrgX_reg_111 n7990 CLK \AES_Comp_ENCa/KrgX_111 n964 VDD GND DFF_X1
xAES_Comp_ENCa/KrgX_reg_66 n8035 CLK \AES_Comp_ENCa/KrgX_66 n919 VDD GND DFF_X1
xAES_Comp_ENCa/KrgX_reg_98 n8003 CLK \AES_Comp_ENCa/KrgX_98 n951 VDD GND DFF_X1
xAES_Comp_ENCa/KrgX_reg_90 n8011 CLK \AES_Comp_ENCa/KrgX_90 n943 VDD GND DFF_X1
xAES_Comp_ENCa/KrgX_reg_122 n7979 CLK \AES_Comp_ENCa/KrgX_122 n975 VDD GND DFF_X1
xAES_Comp_ENCa/KrgX_reg_86 n8015 CLK \AES_Comp_ENCa/KrgX_86 n939 VDD GND DFF_X1
xAES_Comp_ENCa/KrgX_reg_118 n7983 CLK \AES_Comp_ENCa/KrgX_118 n971 VDD GND DFF_X1
xAES_Comp_ENCa/KrgX_reg_78 n8023 CLK \AES_Comp_ENCa/KrgX_78 n931 VDD GND DFF_X1
xAES_Comp_ENCa/KrgX_reg_110 n7991 CLK \AES_Comp_ENCa/KrgX_110 n963 VDD GND DFF_X1
xAES_Comp_ENCa/KrgX_reg_69 n8032 CLK \AES_Comp_ENCa/KrgX_69 n922 VDD GND DFF_X1
xAES_Comp_ENCa/KrgX_reg_101 n8000 CLK \AES_Comp_ENCa/KrgX_101 n954 VDD GND DFF_X1
xAES_Comp_ENCa/KrgX_reg_95 n8006 CLK \AES_Comp_ENCa/KrgX_95 n948 VDD GND DFF_X1
xAES_Comp_ENCa/KrgX_reg_127 n7974 CLK \AES_Comp_ENCa/KrgX_127 n980 VDD GND DFF_X1
xAES_Comp_ENCa/KrgX_reg_82 n8019 CLK \AES_Comp_ENCa/KrgX_82 n935 VDD GND DFF_X1
xAES_Comp_ENCa/KrgX_reg_114 n7987 CLK \AES_Comp_ENCa/KrgX_114 n967 VDD GND DFF_X1
xAES_Comp_ENCa/KrgX_reg_75 n8026 CLK \AES_Comp_ENCa/KrgX_75 n928 VDD GND DFF_X1
xAES_Comp_ENCa/KrgX_reg_107 n7994 CLK \AES_Comp_ENCa/KrgX_107 n960 VDD GND DFF_X1
xAES_Comp_ENCa/KrgX_reg_67 n8034 CLK \AES_Comp_ENCa/KrgX_67 n920 VDD GND DFF_X1
xAES_Comp_ENCa/KrgX_reg_99 n8002 CLK \AES_Comp_ENCa/KrgX_99 n952 VDD GND DFF_X1
xAES_Comp_ENCa/KrgX_reg_92 n8009 CLK \AES_Comp_ENCa/KrgX_92 n945 VDD GND DFF_X1
xAES_Comp_ENCa/KrgX_reg_124 n7977 CLK \AES_Comp_ENCa/KrgX_124 n977 VDD GND DFF_X1
xAES_Comp_ENCa/KrgX_reg_83 n8018 CLK \AES_Comp_ENCa/KrgX_83 n936 VDD GND DFF_X1
xAES_Comp_ENCa/KrgX_reg_115 n7986 CLK \AES_Comp_ENCa/KrgX_115 n968 VDD GND DFF_X1
xAES_Comp_ENCa/KrgX_reg_74 n8027 CLK \AES_Comp_ENCa/KrgX_74 n927 VDD GND DFF_X1
xAES_Comp_ENCa/KrgX_reg_106 n7995 CLK \AES_Comp_ENCa/KrgX_106 n959 VDD GND DFF_X1
xAES_Comp_ENCa/KrgX_reg_65 n8036 CLK \AES_Comp_ENCa/KrgX_65 n918 VDD GND DFF_X1
xAES_Comp_ENCa/KrgX_reg_97 n8004 CLK \AES_Comp_ENCa/KrgX_97 n950 VDD GND DFF_X1
xAES_Comp_ENCa/KrgX_reg_89 n8012 CLK \AES_Comp_ENCa/KrgX_89 n942 VDD GND DFF_X1
xAES_Comp_ENCa/KrgX_reg_121 n7980 CLK \AES_Comp_ENCa/KrgX_121 n974 VDD GND DFF_X1
xAES_Comp_ENCa/KrgX_reg_81 n8020 CLK \AES_Comp_ENCa/KrgX_81 n934 VDD GND DFF_X1
xAES_Comp_ENCa/KrgX_reg_113 n7988 CLK \AES_Comp_ENCa/KrgX_113 n966 VDD GND DFF_X1
xAES_Comp_ENCa/KrgX_reg_73 n8028 CLK \AES_Comp_ENCa/KrgX_73 n926 VDD GND DFF_X1
xAES_Comp_ENCa/KrgX_reg_105 n7996 CLK \AES_Comp_ENCa/KrgX_105 n958 VDD GND DFF_X1
xAES_Comp_ENCa/KrgX_reg_68 n8033 CLK \AES_Comp_ENCa/KrgX_68 n921 VDD GND DFF_X1
xAES_Comp_ENCa/KrgX_reg_100 n8001 CLK \AES_Comp_ENCa/KrgX_100 n953 VDD GND DFF_X1
xAES_Comp_ENCa/KrgX_reg_32 n8069 CLK \AES_Comp_ENCa/KrgX_32 n885 VDD GND DFF_X1
xAES_Comp_ENCa/KrgX_reg_64 n8037 CLK \AES_Comp_ENCa/KrgX_64 n917 VDD GND DFF_X1
xAES_Comp_ENCa/KrgX_reg_96 n8005 CLK \AES_Comp_ENCa/KrgX_96 n949 VDD GND DFF_X1
xAES_Comp_ENCa/KrgX_reg_88 n8013 CLK \AES_Comp_ENCa/KrgX_88 n941 VDD GND DFF_X1
xAES_Comp_ENCa/KrgX_reg_120 n7981 CLK \AES_Comp_ENCa/KrgX_120 n973 VDD GND DFF_X1
xAES_Comp_ENCa/KrgX_reg_80 n8021 CLK \AES_Comp_ENCa/KrgX_80 n933 VDD GND DFF_X1
xAES_Comp_ENCa/KrgX_reg_112 n7989 CLK \AES_Comp_ENCa/KrgX_112 n965 VDD GND DFF_X1
xAES_Comp_ENCa/KrgX_reg_72 n8029 CLK \AES_Comp_ENCa/KrgX_72 n925 VDD GND DFF_X1
xAES_Comp_ENCa/KrgX_reg_104 n7997 CLK \AES_Comp_ENCa/KrgX_104 n957 VDD GND DFF_X1
xAES_Comp_ENCa/Drg_reg_0 n7973 CLK Dout_E_0 n188 VDD GND DFF_X1
xAES_Comp_ENCa/Drg_reg_97 n7876 CLK Dout_E_97 n593 VDD GND DFF_X1
xAES_Comp_ENCa/Drg_reg_64 n7909 CLK Dout_E_64 n483 VDD GND DFF_X1
xAES_Comp_ENCa/Drg_reg_35 n7938 CLK Dout_E_35 n390 VDD GND DFF_X1
xAES_Comp_ENCa/Drg_reg_3 n7970 CLK Dout_E_3 n192 VDD GND DFF_X1
xAES_Comp_ENCa/Drg_reg_107 n7866 CLK Dout_E_107 n622 VDD GND DFF_X1
xAES_Comp_ENCa/Drg_reg_43 n7930 CLK Dout_E_43 n413 VDD GND DFF_X1
xAES_Comp_ENCa/Drg_reg_117 n7856 CLK Dout_E_117 n654 VDD GND DFF_X1
xAES_Comp_ENCa/Drg_reg_16 n7957 CLK Dout_E_16 n301 VDD GND DFF_X1
xAES_Comp_ENCa/Drg_reg_51 n7922 CLK Dout_E_51 n437 VDD GND DFF_X1
xAES_Comp_ENCa/Drg_reg_80 n7893 CLK Dout_E_80 n538 VDD GND DFF_X1
xAES_Comp_ENCa/Drg_reg_115 n7858 CLK Dout_E_115 n651 VDD GND DFF_X1
xAES_Comp_ENCa/Drg_reg_17 n7956 CLK Dout_E_17 n303 VDD GND DFF_X1
xAES_Comp_ENCa/Drg_reg_48 n7925 CLK Dout_E_48 n433 VDD GND DFF_X1
xAES_Comp_ENCa/Drg_reg_81 n7892 CLK Dout_E_81 n539 VDD GND DFF_X1
xAES_Comp_ENCa/Drg_reg_112 n7861 CLK Dout_E_112 n643 VDD GND DFF_X1
xAES_Comp_ENCa/Drg_reg_19 n7954 CLK Dout_E_19 n307 VDD GND DFF_X1
xAES_Comp_ENCa/Drg_reg_49 n7924 CLK Dout_E_49 n434 VDD GND DFF_X1
xAES_Comp_ENCa/Drg_reg_89 n7884 CLK Dout_E_89 n563 VDD GND DFF_X1
xAES_Comp_ENCa/Drg_reg_92 n7881 CLK Dout_E_92 n568 VDD GND DFF_X1
xAES_Comp_ENCa/Drg_reg_91 n7882 CLK Dout_E_91 n566 VDD GND DFF_X1
xAES_Comp_ENCa/Drg_reg_66 n7907 CLK Dout_E_66 n489 VDD GND DFF_X1
xAES_Comp_ENCa/Drg_reg_32 n7941 CLK Dout_E_32 n386 VDD GND DFF_X1
xAES_Comp_ENCa/Drg_reg_7 n7966 CLK Dout_E_7 n197 VDD GND DFF_X1
xAES_Comp_ENCa/Drg_reg_127 n7846 CLK Dout_E_127 n680 VDD GND DFF_X1
xAES_Comp_ENCa/Drg_reg_96 n7877 CLK Dout_E_96 n591 VDD GND DFF_X1
xAES_Comp_ENCa/Drg_reg_68 n7905 CLK Dout_E_68 n492 VDD GND DFF_X1
xAES_Comp_ENCa/Drg_reg_59 n7914 CLK Dout_E_59 n463 VDD GND DFF_X1
xAES_Comp_ENCa/Drg_reg_41 n7932 CLK Dout_E_41 n411 VDD GND DFF_X1
xAES_Comp_ENCa/Drg_reg_104 n7869 CLK Dout_E_104 n617 VDD GND DFF_X1
xAES_Comp_ENCa/Drg_reg_45 n7928 CLK Dout_E_45 n416 VDD GND DFF_X1
xAES_Comp_ENCa/Drg_reg_105 n7868 CLK Dout_E_105 n618 VDD GND DFF_X1
xAES_Comp_ENCa/Drg_reg_58 n7915 CLK Dout_E_58 n462 VDD GND DFF_X1
xAES_Comp_ENCa/Drg_reg_42 n7931 CLK Dout_E_42 n412 VDD GND DFF_X1
xAES_Comp_ENCa/Drg_reg_106 n7867 CLK Dout_E_106 n621 VDD GND DFF_X1
xAES_Comp_ENCa/Drg_reg_40 n7933 CLK Dout_E_40 n409 VDD GND DFF_X1
xAES_Comp_ENCa/Drg_reg_108 n7865 CLK Dout_E_108 n625 VDD GND DFF_X1
xAES_Comp_ENCa/Drg_reg_33 n7940 CLK Dout_E_33 n388 VDD GND DFF_X1
xAES_Comp_ENCa/Drg_reg_31 n7942 CLK Dout_E_31 n369 VDD GND DFF_X1
xAES_Comp_ENCa/Drg_reg_25 n7948 CLK Dout_E_25 n362 VDD GND DFF_X1
xAES_Comp_ENCa/Drg_reg_1 n7972 CLK Dout_E_1 n190 VDD GND DFF_X1
xAES_Comp_ENCa/Drg_reg_100 n7873 CLK Dout_E_100 n597 VDD GND DFF_X1
xAES_Comp_ENCa/Drg_reg_88 n7885 CLK Dout_E_88 n561 VDD GND DFF_X1
xAES_Comp_ENCa/Drg_reg_70 n7903 CLK Dout_E_70 n494 VDD GND DFF_X1
xAES_Comp_ENCa/Drg_reg_34 n7939 CLK Dout_E_34 n389 VDD GND DFF_X1
xAES_Comp_ENCa/Drg_reg_2 n7971 CLK Dout_E_2 n191 VDD GND DFF_X1
xAES_Comp_ENCa/Drg_reg_98 n7875 CLK Dout_E_98 n594 VDD GND DFF_X1
xAES_Comp_ENCa/Drg_reg_75 n7898 CLK Dout_E_75 n516 VDD GND DFF_X1
xAES_Comp_ENCa/Drg_reg_11 n7962 CLK Dout_E_11 n249 VDD GND DFF_X1
xAES_Comp_ENCa/Drg_reg_85 n7888 CLK Dout_E_85 n544 VDD GND DFF_X1
xAES_Comp_ENCa/Drg_reg_120 n7853 CLK Dout_E_120 n668 VDD GND DFF_X1
xAES_Comp_ENCa/Drg_reg_122 n7851 CLK Dout_E_122 n673 VDD GND DFF_X1
xAES_Comp_ENCa/Drg_reg_103 n7870 CLK Dout_E_103 n600 VDD GND DFF_X1
xAES_Comp_ENCa/Drg_reg_65 n7908 CLK Dout_E_65 n485 VDD GND DFF_X1
xAES_Comp_ENCa/Drg_reg_36 n7937 CLK Dout_E_36 n392 VDD GND DFF_X1
xAES_Comp_ENCa/Drg_reg_18 n7955 CLK Dout_E_18 n306 VDD GND DFF_X1
xAES_Comp_ENCa/Drg_reg_62 n7911 CLK Dout_E_62 n467 VDD GND DFF_X1
xAES_Comp_ENCa/Drg_reg_60 n7913 CLK Dout_E_60 n465 VDD GND DFF_X1
xAES_Comp_ENCa/Drg_reg_37 n7936 CLK Dout_E_37 n393 VDD GND DFF_X1
xAES_Comp_ENCa/Drg_reg_24 n7949 CLK Dout_E_24 n361 VDD GND DFF_X1
xAES_Comp_ENCa/Drg_reg_27 n7946 CLK Dout_E_27 n365 VDD GND DFF_X1
xAES_Comp_ENCa/Drg_reg_28 n7945 CLK Dout_E_28 n366 VDD GND DFF_X1
xAES_Comp_ENCa/Drg_reg_26 n7947 CLK Dout_E_26 n364 VDD GND DFF_X1
xAES_Comp_ENCa/Drg_reg_4 n7969 CLK Dout_E_4 n194 VDD GND DFF_X1
xAES_Comp_ENCa/Drg_reg_102 n7871 CLK Dout_E_102 n599 VDD GND DFF_X1
xAES_Comp_ENCa/Drg_reg_90 n7883 CLK Dout_E_90 n565 VDD GND DFF_X1
xAES_Comp_ENCa/Drg_reg_72 n7901 CLK Dout_E_72 n511 VDD GND DFF_X1
xAES_Comp_ENCa/Drg_reg_9 n7964 CLK Dout_E_9 n245 VDD GND DFF_X1
xAES_Comp_ENCa/Drg_reg_76 n7897 CLK Dout_E_76 n517 VDD GND DFF_X1
xAES_Comp_ENCa/Drg_reg_13 n7960 CLK Dout_E_13 n253 VDD GND DFF_X1
xAES_Comp_ENCa/Drg_reg_73 n7900 CLK Dout_E_73 n513 VDD GND DFF_X1
xAES_Comp_ENCa/Drg_reg_8 n7965 CLK Dout_E_8 n243 VDD GND DFF_X1
xAES_Comp_ENCa/Drg_reg_74 n7899 CLK Dout_E_74 n515 VDD GND DFF_X1
xAES_Comp_ENCa/Drg_reg_14 n7959 CLK Dout_E_14 n254 VDD GND DFF_X1
xAES_Comp_ENCa/Drg_reg_77 n7896 CLK Dout_E_77 n518 VDD GND DFF_X1
xAES_Comp_ENCa/Drg_reg_12 n7961 CLK Dout_E_12 n252 VDD GND DFF_X1
xAES_Comp_ENCa/Drg_reg_83 n7890 CLK Dout_E_83 n542 VDD GND DFF_X1
xAES_Comp_ENCa/Drg_reg_113 n7860 CLK Dout_E_113 n647 VDD GND DFF_X1
xAES_Comp_ENCa/Drg_reg_21 n7952 CLK Dout_E_21 n310 VDD GND DFF_X1
xAES_Comp_ENCa/Drg_reg_50 n7923 CLK Dout_E_50 n436 VDD GND DFF_X1
xAES_Comp_ENCa/Drg_reg_82 n7891 CLK Dout_E_82 n541 VDD GND DFF_X1
xAES_Comp_ENCa/Drg_reg_114 n7859 CLK Dout_E_114 n650 VDD GND DFF_X1
xAES_Comp_ENCa/Drg_reg_6 n7967 CLK Dout_E_6 n196 VDD GND DFF_X1
xAES_Comp_ENCa/Drg_reg_99 n7874 CLK Dout_E_99 n595 VDD GND DFF_X1
xAES_Comp_ENCa/Drg_reg_87 n7886 CLK Dout_E_87 n546 VDD GND DFF_X1
xAES_Comp_ENCa/Drg_reg_116 n7857 CLK dummy7 n653 VDD GND DFF_X1
xAES_Comp_ENCa/Drg_reg_15 n7958 CLK Dout_E_15 n255 VDD GND DFF_X1
xAES_Comp_ENCa/Drg_reg_84 n7889 CLK Dout_E_84 n543 VDD GND DFF_X1
xAES_Comp_ENCa/Drg_reg_126 n7847 CLK Dout_E_126 n679 VDD GND DFF_X1
xAES_Comp_ENCa/Drg_reg_121 n7852 CLK Dout_E_121 n669 VDD GND DFF_X1
xAES_Comp_ENCa/Drg_reg_123 n7850 CLK Dout_E_123 n674 VDD GND DFF_X1
xAES_Comp_ENCa/Drg_reg_111 n7862 CLK Dout_E_111 n628 VDD GND DFF_X1
xAES_Comp_ENCa/Drg_reg_44 n7929 CLK Dout_E_44 n415 VDD GND DFF_X1
xAES_Comp_ENCa/Drg_reg_119 n7854 CLK Dout_E_119 n656 VDD GND DFF_X1
xAES_Comp_ENCa/Drg_reg_10 n7963 CLK Dout_E_10 n248 VDD GND DFF_X1
xAES_Comp_ENCa/Drg_reg_94 n7879 CLK Dout_E_94 n571 VDD GND DFF_X1
xAES_Comp_ENCa/Drg_reg_67 n7906 CLK Dout_E_67 n490 VDD GND DFF_X1
xAES_Comp_ENCa/Drg_reg_39 n7934 CLK Dout_E_39 n395 VDD GND DFF_X1
xAES_Comp_ENCa/Drg_reg_30 n7943 CLK Dout_E_30 n368 VDD GND DFF_X1
xAES_Comp_ENCa/Drg_reg_5 n7968 CLK Dout_E_5 n195 VDD GND DFF_X1
xAES_Comp_ENCa/Drg_reg_118 n7855 CLK Dout_E_118 n655 VDD GND DFF_X1
xAES_Comp_ENCa/Drg_reg_20 n7953 CLK Dout_E_20 n309 VDD GND DFF_X1
xAES_Comp_ENCa/Drg_reg_52 n7921 CLK Dout_E_52 n440 VDD GND DFF_X1
xAES_Comp_ENCa/Drg_reg_93 n7880 CLK Dout_E_93 n570 VDD GND DFF_X1
xAES_Comp_ENCa/Drg_reg_69 n7904 CLK Dout_E_69 n493 VDD GND DFF_X1
xAES_Comp_ENCa/Drg_reg_38 n7935 CLK Dout_E_38 n394 VDD GND DFF_X1
xAES_Comp_ENCa/Drg_reg_29 n7944 CLK Dout_E_29 n367 VDD GND DFF_X1
xAES_Comp_ENCa/Drg_reg_22 n7951 CLK Dout_E_22 n311 VDD GND DFF_X1
xAES_Comp_ENCa/Drg_reg_53 n7920 CLK Dout_E_53 n441 VDD GND DFF_X1
xAES_Comp_ENCa/Drg_reg_71 n7902 CLK Dout_E_71 n495 VDD GND DFF_X1
xAES_Comp_ENCa/Drg_reg_61 n7912 CLK Dout_E_61 n466 VDD GND DFF_X1
xAES_Comp_ENCa/Drg_reg_57 n7916 CLK Dout_E_57 n460 VDD GND DFF_X1
xAES_Comp_ENCa/Drg_reg_56 n7917 CLK Dout_E_56 n459 VDD GND DFF_X1
xAES_Comp_ENCa/Drg_reg_47 n7926 CLK Dout_E_47 n418 VDD GND DFF_X1
xAES_Comp_ENCa/Drg_reg_109 n7864 CLK Dout_E_109 n626 VDD GND DFF_X1
xAES_Comp_ENCa/Drg_reg_54 n7919 CLK Dout_E_54 n442 VDD GND DFF_X1
xAES_Comp_ENCa/Drg_reg_79 n7894 CLK Dout_E_79 n520 VDD GND DFF_X1
xAES_Comp_ENCa/Drg_reg_23 n7950 CLK Dout_E_23 n312 VDD GND DFF_X1
xAES_Comp_ENCa/Drg_reg_63 n7910 CLK Dout_E_63 n468 VDD GND DFF_X1
xAES_Comp_ENCa/Drg_reg_46 n7927 CLK Dout_E_46 n417 VDD GND DFF_X1
xAES_Comp_ENCa/Drg_reg_55 n7918 CLK Dout_E_55 n443 VDD GND DFF_X1